FoamFile
{
    version     2.0;
    format      ascii;
    class       dictionary;
    object      topoSetDict;
}

actions
(
    {
        name    meshgridCells;
        type    cellSet;
        action  new;
        source  surfaceToCell;
        sourceInfo
        {
            file    "meshgrid.stl";
            useSurfaceOrientation false;
            outsidePoints ((0 0 0));
            includeCut     false;
            includeInside  true;
            includeOutside false;
            nearDistance   -1;
            curvature      -100;
        }
    }
);