FoamFile
{
    version     2.0;
    format      ascii;
    class       dictionary;
    object      blockMeshDict;
}

convertToMeters 1;

vertices
(
    (0 -2 0)
    (10 -2 0)
    (10 2 0)
    (0 2 0)
);

blocks
(
    hex (0 1 2 3) (150 150 1) simpleGrading (1 1 1)
);

edges
(
);

boundary
(
    inlet
    {
        type patch;
        faces
        (
            (0 3 2 1)
        );
    }
    outlet
    {
        type patch;
        faces
        (
            (1 2 3 0)
        );
    }
    walls
    {
        type wall;
        faces
        (
            (0 1 2 3)
        );
    }
    frontAndBack
    {
        type empty;
        faces
        (
            (0 3 2 1)
            (1 2 3 0)
        );
    }
);