/*--------------------------------*- C++ -*----------------------------------*\
| =========                 |                                                 |
| \\      /  F ield         | OpenFOAM: The Open Source CFD Toolbox           |
|  \\    /   O peration     | Version:  v2012                                 |
|   \\  /    A nd           | Website:  www.openfoam.com                      |
|    \\/     M anipulation  |                                                 |
\*---------------------------------------------------------------------------*/
FoamFile
{
    version     2.0;
    format      ascii;
    class       dictionary;
    location    "constant/transportProperties";
    object      fluidProperties;
}

// * * * * * * * * * * * * * * * * * * * * * * * * * * * * * * * * * * * * * //

rho             rho [ 1 -3 0 0 0 0 0 ] 998.2; // Density of water at 20째C [kg/m3]
nu              nu [ 0 2 -1 0 0 0 0 ] 1e-06; // Kinematic viscosity of water at 20째C [m2/s]
Cp              Cp [ 0 2 -2 -1 0 0 0 ] 4182; // Specific heat capacity of water at 20째C [J/(kg.K)]
kappa           kappa [ 1 1 -3 -1 0 0 0 ] 0.598; // Thermal conductivity of water at 20째C [W/(m.K)]

// ************************************************************************* //